Version 4
SHEET 1 880 680
WIRE 288 0 64 0
WIRE 528 0 288 0
WIRE 288 96 288 80
WIRE 336 96 288 96
WIRE 432 96 400 96
WIRE 288 128 288 96
WIRE 432 160 432 96
WIRE -64 176 -176 176
WIRE 64 176 64 80
WIRE 64 176 0 176
WIRE 224 176 64 176
WIRE -176 192 -176 176
WIRE 528 224 528 0
WIRE 64 256 64 176
WIRE 288 272 288 224
WIRE 288 272 224 272
WIRE 288 288 288 272
WIRE -176 336 -176 272
WIRE 224 400 224 336
WIRE 288 400 288 368
WIRE 288 400 224 400
WIRE 64 448 64 336
WIRE 288 448 288 400
WIRE 288 448 64 448
WIRE 368 448 288 448
WIRE 528 448 528 304
WIRE 528 448 368 448
WIRE 368 496 368 448
FLAG -176 336 0
FLAG 368 496 0
FLAG 432 160 Vout
SYMBOL npn 224 128 R0
SYMATTR InstName Q1
SYMBOL res 272 -16 R0
SYMATTR InstName R1
SYMATTR Value 10K
SYMBOL res 272 272 R0
SYMATTR InstName R2
SYMATTR Value 1K
SYMBOL res 48 -16 R0
SYMATTR InstName R3
SYMATTR Value 30K
SYMBOL res 48 240 R0
SYMATTR InstName R4
SYMATTR Value 3.9K
SYMBOL voltage -176 176 R0
WINDOW 123 0 0 Left 0
WINDOW 39 0 0 Left 0
SYMATTR InstName V1
SYMATTR Value SINE(0 30m 1k)
SYMBOL voltage 528 208 R0
WINDOW 123 0 0 Left 0
WINDOW 39 0 0 Left 0
SYMATTR InstName V2
SYMATTR Value 12
SYMBOL cap 0 160 R90
WINDOW 0 0 32 VBottom 2
WINDOW 3 32 32 VTop 2
SYMATTR InstName C1
SYMATTR Value 10µ
SYMBOL cap 240 336 R180
WINDOW 0 24 56 Left 2
WINDOW 3 24 8 Left 2
SYMATTR InstName C2
SYMATTR Value 33n
SYMBOL cap 400 80 R90
WINDOW 0 0 32 VBottom 2
WINDOW 3 32 32 VTop 2
SYMATTR InstName C3
SYMATTR Value 10µ
TEXT -120 64 Left 2 !.tran 10M
TEXT -224 -112 Left 2 ;Class A Transistor Capacitor Amplifier
